# File created by: sisl 2020-02-20
#
CRYSTAL
#
# Primitive lattice vectors:
#
PRIMVEC
4.59845000 0.00000000 0.00000000 
-2.29922500 3.98237452 0.00000000 
0.00000000 0.00000000 40.00000000 
#
# Conventional lattice vectors:
#
CONVVEC
6.89767500 0.00000000 0.00000000 
0.00000000 3.98237452 0.00000000 
0.00000000 0.00000000 40.00000000 
#
# Atomic coordinates (in primitive coordinates)
#
PRIMCOORD
2 1
 83  0.00045985  0.00000000  0.00000000
 83  2.29922500  1.32745817  1.62000000
