# File created by: sisl 2021-05-14
#
CRYSTAL
#
# Primitive lattice vectors:
#
PRIMVEC
4.26000000 0.00000000 0.00000000 
0.00000000 69.19024293 0.00000000 
0.00000000 0.00000000 14.20000000 
#
# Conventional lattice vectors:
#
CONVVEC
4.26000000 0.00000000 0.00000000 
0.00000000 69.19024293 0.00000000 
0.00000000 0.00000000 14.20000000 
#
# Atomic coordinates (in primitive coordinates)
#
PRIMCOORD
78 1
  6  0.00000000  11.22975607  0.00000000
  6  0.00000000  13.68926822  0.00000000
  6  0.00000000  16.14878037  0.00000000
  6  0.00000000  18.60829251  0.00000000
  6  0.00000000  21.06780466  0.00000000
  6  0.00000000  23.52731681  0.00000000
  6  0.00000000  25.98682895  0.00000000
  6  0.00000000  28.44634110  0.00000000
  6  0.00000000  30.90585325  0.00000000
  6  0.00000000  33.36536539  0.00000000
  6  0.00000000  35.82487754  0.00000000
  6  0.00000000  38.28438969  0.00000000
  6  0.00000000  40.74390183  0.00000000
  6  0.00000000  43.20341398  0.00000000
  6  0.00000000  45.66292613  0.00000000
  6  0.00000000  48.12243827  0.00000000
  6  0.00000000  50.58195042  0.00000000
  6  0.00000000  53.04146257  0.00000000
  6  0.00000000  55.50097471  0.00000000
  6  0.71000000  10.00000000  0.00000000
  6  0.71000000  12.45951215  0.00000000
  6  0.71000000  14.91902429  0.00000000
  6  0.71000000  17.37853644  0.00000000
  6  0.71000000  19.83804859  0.00000000
  6  0.71000000  22.29756073  0.00000000
  6  0.71000000  24.75707288  0.00000000
  6  0.71000000  27.21658503  0.00000000
  6  0.71000000  29.67609717  0.00000000
  6  0.71000000  32.13560932  0.00000000
  6  0.71000000  34.59512147  0.00000000
  6  0.71000000  37.05463361  0.00000000
  6  0.71000000  39.51414576  0.00000000
  6  0.71000000  41.97365791  0.00000000
  6  0.71000000  44.43317005  0.00000000
  6  0.71000000  46.89268220  0.00000000
  6  0.71000000  49.35219435  0.00000000
  6  0.71000000  51.81170649  0.00000000
  6  0.71000000  54.27121864  0.00000000
  6  0.71000000  56.73073079  0.00000000
  6  2.13000000  10.00000000  0.00000000
  6  2.13000000  12.45951215  0.00000000
  6  2.13000000  14.91902429  0.00000000
  6  2.13000000  17.37853644  0.00000000
  6  2.13000000  19.83804859  0.00000000
  6  2.13000000  22.29756073  0.00000000
  6  2.13000000  24.75707288  0.00000000
  6  2.13000000  27.21658503  0.00000000
  6  2.13000000  29.67609717  0.00000000
  6  2.13000000  32.13560932  0.00000000
  6  2.13000000  34.59512147  0.00000000
  6  2.13000000  37.05463361  0.00000000
  6  2.13000000  39.51414576  0.00000000
  6  2.13000000  41.97365791  0.00000000
  6  2.13000000  44.43317005  0.00000000
  6  2.13000000  46.89268220  0.00000000
  6  2.13000000  49.35219435  0.00000000
  6  2.13000000  51.81170649  0.00000000
  6  2.13000000  54.27121864  0.00000000
  6  2.13000000  56.73073079  0.00000000
  6  2.84000000  11.22975607  0.00000000
  6  2.84000000  13.68926822  0.00000000
  6  2.84000000  16.14878037  0.00000000
  6  2.84000000  18.60829251  0.00000000
  6  2.84000000  21.06780466  0.00000000
  6  2.84000000  23.52731681  0.00000000
  6  2.84000000  25.98682895  0.00000000
  6  2.84000000  28.44634110  0.00000000
  6  2.84000000  30.90585325  0.00000000
  6  2.84000000  33.36536539  0.00000000
  6  2.84000000  35.82487754  0.00000000
  6  2.84000000  38.28438969  0.00000000
  6  2.84000000  40.74390183  0.00000000
  6  2.84000000  43.20341398  0.00000000
  6  2.84000000  45.66292613  0.00000000
  6  2.84000000  48.12243827  0.00000000
  6  2.84000000  50.58195042  0.00000000
  6  2.84000000  53.04146257  0.00000000
  6  2.84000000  55.50097471  0.00000000
