# File created by: sisl 2021-05-12
#
CRYSTAL
#
# Primitive lattice vectors:
#
PRIMVEC
83.90000000 0.00000000 0.00000000 
0.00000000 2.45951215 0.00000000 
0.00000000 0.00000000 14.20000000 
#
# Conventional lattice vectors:
#
CONVVEC
83.90000000 0.00000000 0.00000000 
0.00000000 2.45951215 0.00000000 
0.00000000 0.00000000 14.20000000 
#
# Atomic coordinates (in primitive coordinates)
#
PRIMCOORD
60 1
  6  10.00000000  0.00000000  0.00000000
  6  12.84000000  0.00000000  0.00000000
  6  14.26000000  0.00000000  0.00000000
  6  17.10000000  0.00000000  0.00000000
  6  18.52000000  0.00000000  0.00000000
  6  21.36000000  0.00000000  0.00000000
  6  22.78000000  0.00000000  0.00000000
  6  25.62000000  0.00000000  0.00000000
  6  27.04000000  0.00000000  0.00000000
  6  29.88000000  0.00000000  0.00000000
  6  31.30000000  0.00000000  0.00000000
  6  34.14000000  0.00000000  0.00000000
  6  35.56000000  0.00000000  0.00000000
  6  38.40000000  0.00000000  0.00000000
  6  39.82000000  0.00000000  0.00000000
  6  42.66000000  0.00000000  0.00000000
  6  44.08000000  0.00000000  0.00000000
  6  46.92000000  0.00000000  0.00000000
  6  48.34000000  0.00000000  0.00000000
  6  51.18000000  0.00000000  0.00000000
  6  52.60000000  0.00000000  0.00000000
  6  55.44000000  0.00000000  0.00000000
  6  56.86000000  0.00000000  0.00000000
  6  59.70000000  0.00000000  0.00000000
  6  61.12000000  0.00000000  0.00000000
  6  63.96000000  0.00000000  0.00000000
  6  65.38000000  0.00000000  0.00000000
  6  68.22000000  0.00000000  0.00000000
  6  69.64000000  0.00000000  0.00000000
  6  72.48000000  0.00000000  0.00000000
  6  10.71000000  1.22975607  0.00000000
  6  12.13000000  1.22975607  0.00000000
  6  14.97000000  1.22975607  0.00000000
  6  16.39000000  1.22975607  0.00000000
  6  19.23000000  1.22975607  0.00000000
  6  20.65000000  1.22975607  0.00000000
  6  23.49000000  1.22975607  0.00000000
  6  24.91000000  1.22975607  0.00000000
  6  27.75000000  1.22975607  0.00000000
  6  29.17000000  1.22975607  0.00000000
  6  32.01000000  1.22975607  0.00000000
  6  33.43000000  1.22975607  0.00000000
  6  36.27000000  1.22975607  0.00000000
  6  37.69000000  1.22975607  0.00000000
  6  40.53000000  1.22975607  0.00000000
  6  41.95000000  1.22975607  0.00000000
  6  44.79000000  1.22975607  0.00000000
  6  46.21000000  1.22975607  0.00000000
  6  49.05000000  1.22975607  0.00000000
  6  50.47000000  1.22975607  0.00000000
  6  53.31000000  1.22975607  0.00000000
  6  54.73000000  1.22975607  0.00000000
  6  57.57000000  1.22975607  0.00000000
  6  58.99000000  1.22975607  0.00000000
  6  61.83000000  1.22975607  0.00000000
  6  63.25000000  1.22975607  0.00000000
  6  66.09000000  1.22975607  0.00000000
  6  67.51000000  1.22975607  0.00000000
  6  70.35000000  1.22975607  0.00000000
  6  71.77000000  1.22975607  0.00000000
